@<TRIPOS>MOLECULE
*****
 116 126 0 0 0
SMALL
GASTEIGER

@<TRIPOS>ATOM
      1 C          -1.8973   -0.1894    0.9458 C.2     1  UNL1        0.0468
      2 C          -2.8066    0.6607    0.4293 C.2     1  UNL1       -0.3063
      3 C          -2.5928    1.1720   -0.9355 C.2     1  UNL1       -0.4542
      4 C          -1.5417    0.8095   -1.6785 C.2     1  UNL1       -0.0513
      5 C          -0.5556   -0.1181   -1.1138 C.2     1  UNL1       -0.0445
      6 C          -0.7298   -0.5665    0.1304 C.2     1  UNL1       -0.3543
      7 O           0.4869   -0.5142   -1.8480 O.2     1  UNL1       -0.5083
      8 C           1.2965   -1.4545   -1.1319 C.3     1  UNL1        0.2482
      9 O          -1.3842    1.2733   -2.9197 O.2     1  UNL1       -0.5085
     10 C          -2.4537    2.1520   -3.2858 C.3     1  UNL1        0.2482
     11 N          -1.9522   -0.8237    2.2422 N.pl3   1  UNL1        0.0372
     12 O          -1.1893   -1.5241    2.6169 O.2     1  UNL1        0.0382
     13 O          -3.1125   -0.4837    2.9571 O.co2   1  UNL1       -0.5786
     14 C          -4.0891    1.0707    1.1068 C.2     1  UNL1       -0.1441
     15 C          -3.8661    1.8606    2.4134 C.3     1  UNL1       -0.1853
     16 O          -4.9072   -0.1012    1.2342 O.3     1  UNL1       -0.6026
     17 C          -6.1772    0.1439    1.5702 C.2     1  UNL1        0.4476
     18 O          -6.5762    1.2646    1.8470 O.2     1  UNL1       -0.2085
     19 O          -7.0068   -0.8975    1.4466 O.3     1  UNL1       -0.5977
     20 C          -8.3732   -0.5996    1.7648 C.2     1  UNL1       -0.0524
     21 C         -15.4579    0.0497   -8.1563 C.2     1  UNL1       -0.9677
     22 C         -14.3682   -0.6056   -8.8925 C.2     1  UNL1       -0.7514
     23 C         -15.2304   -3.0233  -12.0240 C.2     1  UNL1       -0.7514
     24 C         -15.5536   -3.6994  -13.1286 C.2     1  UNL1       -0.9677
     25 O         -11.3336   -2.4948  -10.6083 O.2     1  UNL1       -0.3148
     26 C         -16.6992   -0.4332   -8.2380 C.2     1  UNL1       -0.9969
     27 C         -12.2812   -2.0540   -9.9780 C.2     1  UNL1        0.0255
     28 C         -14.5829   -1.6524   -9.6948 C.2     1  UNL1       -0.3986
     29 N         -13.5696   -2.2526  -10.3694 N.am    1  UNL1       -0.4106
     30 C         -13.8719   -3.0273  -11.4473 C.2     1  UNL1       -0.3986
     31 C         -11.9554   -1.3319   -8.7260 C.2     1  UNL1       -0.6354
     32 C         -14.5312   -4.5143  -13.7960 C.2     1  UNL1       -0.9969
     33 C          -9.5823   -1.6943   -1.9712 C.2     1  UNL1       -0.7011
     34 C          -9.8176   -1.9805   -3.2567 C.2     1  UNL1       -0.7552
     35 C          -9.2282   -1.2296    0.6344 C.3     1  UNL1        0.0517
     36 C         -12.9522   -3.7518  -12.0937 C.2     1  UNL1       -0.7514
     37 C         -16.9629   -1.6018   -9.0879 C.2     1  UNL1       -0.9677
     38 C         -13.2956   -4.5407  -13.2904 C.2     1  UNL1       -0.9677
     39 C         -15.9669   -2.1500   -9.7868 C.2     1  UNL1       -0.7514
     40 C         -12.1203   -1.8602   -7.5061 C.2     1  UNL1       -0.6738
     41 C         -10.3072   -0.5934   -1.3150 C.2     1  UNL1       -0.3053
     42 O         -10.0735   -0.2704   -0.0308 O.2     1  UNL1       -0.5860
     43 C         -10.8157   -1.2411   -4.0512 C.2     1  UNL1       -0.5918
     44 N         -11.0540   -1.6371   -5.3258 N.am    1  UNL1       -0.7091
     45 C         -11.9486   -1.1523   -6.2172 C.2     1  UNL1       -0.1492
     46 O         -12.7454   -0.2732   -5.9313 O.2     1  UNL1       -0.3560
     47 C         -11.1903    0.1025   -2.0408 C.2     1  UNL1       -0.7011
     48 C         -11.4705   -0.2404   -3.4519 C.2     1  UNL1       -0.7552
     49 C         -15.7121   -3.6639   12.2164 C.2     1  UNL1       -0.9677
     50 C         -14.4350   -2.9846   12.4814 C.2     1  UNL1       -0.7514
     51 C         -14.0470   -0.6082   15.7579 C.2     1  UNL1       -0.7514
     52 C         -13.8889    0.0309   16.9193 C.2     1  UNL1       -0.9677
     53 O         -11.0262   -0.9026   12.9386 O.2     1  UNL1       -0.2745
     54 C         -16.8335   -3.2301   12.7955 C.2     1  UNL1       -0.9969
     55 C         -12.0944   -1.4581   12.7402 C.2     1  UNL1        0.2238
     56 C         -14.3383   -1.9659   13.3408 C.2     1  UNL1       -0.3962
     57 N         -13.1692   -1.3100   13.5628 N.am    1  UNL1       -0.3823
     58 C         -13.0648   -0.5147   14.6615 C.2     1  UNL1       -0.3962
     59 C         -12.1340   -2.3721   11.5420 C.3     1  UNL1        0.0916
     60 C         -12.7287    0.9104   17.1107 C.2     1  UNL1       -0.9969
     61 C          -9.2791   -1.6842    5.6692 C.2     1  UNL1       -0.7011
     62 C          -9.6632   -1.7503    6.9479 C.2     1  UNL1       -0.7551
     63 C          -8.6393   -1.2161    3.1656 C.3     1  UNL1        0.0517
     64 C         -12.0034    0.2703   14.8754 C.2     1  UNL1       -0.7514
     65 C         -16.7675   -2.0897   13.7186 C.2     1  UNL1       -0.9677
     66 C         -11.8425    1.0385   16.1207 C.2     1  UNL1       -0.9677
     67 C         -15.5888   -1.5222   13.9841 C.2     1  UNL1       -0.7514
     68 C         -12.9977   -1.7923   10.4041 C.3     1  UNL1        0.0528
     69 C         -10.1843   -2.1314    4.5960 C.2     1  UNL1       -0.3053
     70 O          -9.8776   -1.9327    3.3043 O.2     1  UNL1       -0.5860
     71 C         -10.9996   -2.2482    7.3134 C.2     1  UNL1       -0.5897
     72 N         -11.4265   -2.0865    8.5851 N.am    1  UNL1       -0.6795
     73 C         -12.6496   -2.3898    9.0671 C.2     1  UNL1        0.0551
     74 O         -13.5309   -2.9086    8.4012 O.2     1  UNL1       -0.3177
     75 C         -11.3687   -2.6525    4.9335 C.2     1  UNL1       -0.7011
     76 C         -11.8000   -2.7024    6.3437 C.2     1  UNL1       -0.7551
     77 C         -14.1994   -4.3207   10.8981 C.2     2  UNL2       -0.7395
     78 C         -14.4515   -5.4496   10.2307 C.2     2  UNL2       -0.4935
     79 C         -13.4087   -6.4918   10.2102 C.2     2  UNL2       -0.7395
     80 C         -12.2270   -6.2906   10.8050 C.2     2  UNL2       -0.7395
     81 C         -11.9346   -5.0223   11.4988 C.2     2  UNL2       -0.4935
     82 C         -12.9004   -4.1018   11.5569 C.2     2  UNL2       -0.7395
     83 C         -19.0103   -0.9459    6.2212 C.2     2  UNL2       -0.7606
     84 C         -17.7925   -0.7728    7.0305 C.2     2  UNL2       -0.4048
     85 C         -19.5695   -2.1484    6.0765 C.2     2  UNL2       -0.9370
     86 C         -17.2362   -1.8462    7.6066 C.2     2  UNL2       -0.5333
     87 C         -18.9611   -3.3078    6.7425 C.2     2  UNL2       -0.7606
     88 C         -17.8382   -3.1883    7.4575 C.2     2  UNL2       -0.4048
     89 C         -17.3418   -4.3945    8.1530 C.2     2  UNL2        0.0075
     90 C         -15.7533   -5.6218    9.4894 C.3     2  UNL2       -0.1760
     91 N         -16.1617   -4.3979    8.8089 N.am    2  UNL2       -0.6395
     92 O         -18.0586   -5.3824    8.1387 O.2     2  UNL2       -0.3189
     93 C         -17.3444    0.6114    7.2799 C.2     2  UNL2        0.0075
     94 N         -16.2145    0.8855    7.9632 N.am    2  UNL2       -0.6395
     95 C         -15.9932    2.2738    8.3454 C.3     2  UNL2       -0.1760
     96 O         -18.1226    1.5032    6.9822 O.2     2  UNL2       -0.3189
     97 C          -6.7015    0.4437   11.1322 C.2     2  UNL2       -0.7606
     98 C          -8.0108    0.3947   10.8714 C.2     2  UNL2       -0.4048
     99 O          -7.8403    2.3808    9.7018 O.2     2  UNL2       -0.3189
    100 C          -8.6028    1.5800   10.2190 C.2     2  UNL2        0.0075
    101 C          -6.0267   -0.6624   11.8221 C.2     2  UNL2       -0.9370
    102 C          -8.7713   -0.8128   11.2645 C.2     2  UNL2       -0.5333
    103 C          -6.7344   -1.7324   12.1892 C.2     2  UNL2       -0.7606
    104 C          -8.1729   -1.8359   11.8897 C.2     2  UNL2       -0.4048
    105 C         -10.5883   -4.7564   12.1258 C.3     2  UNL2       -0.1760
    106 C          -8.8522   -3.0890   12.2854 C.2     2  UNL2        0.0075
    107 C         -12.4204    3.5666    8.2300 C.2     2  UNL2       -0.7395
    108 C         -13.6925    3.3434    7.8881 C.2     2  UNL2       -0.7395
    109 N         -10.0363   -3.4585   11.7498 N.am    2  UNL2       -0.6395
    110 N          -9.9239    1.8326   10.3030 N.am    2  UNL2       -0.6395
    111 C         -10.4115    3.1038    9.7866 C.3     2  UNL2       -0.1760
    112 C         -11.8821    3.0218    9.4867 C.2     2  UNL2       -0.4935
    113 C         -14.5764    2.5567    8.7631 C.2     2  UNL2       -0.4935
    114 O          -8.2587   -3.8196   13.0625 O.2     2  UNL2       -0.3189
    115 C         -12.6999    2.3559   10.3062 C.2     2  UNL2       -0.7395
    116 C         -14.1073    2.1289    9.9386 C.2     2  UNL2       -0.7395
@<TRIPOS>BOND
     1     1     2    2
     2     1     6    1
     3     2     3    1
     4     3     4    2
     5     4     5    1
     6     5     6    2
     7     5     7    1
     8     7     8    1
     9     4     9    1
    10     9    10    1
    11     1    11    1
    12    11    12    2
    13    11    13    1
    14     2    14    1
    15    14    15    1
    16    14    16    1
    17    16    17    1
    18    17    18    2
    19    17    19    1
    20    19    20    1
    21    22    28    2
    22    22    21    1
    23    23    30    1
    24    24    23    2
    25    26    21    2
    26    27    25    2
    27    27    29   am
    28    28    39    1
    29    28    29    1
    30    29    30    1
    31    30    36    2
    32    31    40    2
    33    31    27    1
    34    32    24    1
    35    34    33    2
    36    35    42    1
    37    37    26    1
    38    38    32    2
    39    38    36    1
    40    39    37    2
    41    41    47    2
    42    41    33    1
    43    41    42    1
    44    43    34    1
    45    43    44    1
    46    44    45    1
    47    45    40    1
    48    45    46    2
    49    47    48    1
    50    48    43    2
    51    50    56    2
    52    50    49    1
    53    51    58    1
    54    52    51    2
    55    54    49    2
    56    55    53    2
    57    55    57   am
    58    56    67    1
    59    56    57    1
    60    57    58    1
    61    58    64    2
    62    59    68    1
    63    59    55    1
    64    60    52    1
    65    62    61    2
    66    63    70    1
    67    65    54    1
    68    66    60    2
    69    66    64    1
    70    67    65    2
    71    69    75    2
    72    69    61    1
    73    69    70    1
    74    71    62    1
    75    71    72    1
    76    72    73    1
    77    73    68    1
    78    73    74    2
    79    75    76    1
    80    76    71    2
    81    20    35    1
    82    20    63    1
    83    77    78    2
    84    77    82    1
    85    78    79    1
    86    79    80    2
    87    80    81    1
    88    81    82    2
    89    83    85    2
    90    83    84    1
    91    85    87    1
    92    86    84    2
    93    87    88    2
    94    88    86    1
    95    88    89    1
    96    78    90    1
    97    90    91    1
    98    91    89    1
    99    89    92    2
   100    84    93    1
   101    93    94    1
   102    95    94    1
   103    96    93    2
   104    97    98    2
   105    98   102    1
   106    98   100    1
   107   100    99    2
   108   101    97    1
   109   102   104    2
   110   103   101    2
   111   103   104    1
   112   104   106    1
   113   105   109    1
   114   106   109    1
   115   107   108    2
   116   108   113    1
   117   110   100    1
   118   111   110    1
   119   112   107    1
   120   112   111    1
   121   113   116    2
   122   114   106    2
   123   115   112    2
   124   115   116    1
   125    81   105    1
   126    95   113    1
